FoamFile
{
    version     2.0;
    format      ascii;
    class       dictionary;
    object      blockMeshDict;
}
convertToMeters 1;

vertices
(
    (0 0 0)
    (6.28318530718 0 0)
    (6.28318530718 6.28318530718 0)
    (0 6.28318530718 0)
    (0 0 0.01)
    (6.28318530718 0 0.01)
    (6.28318530718 6.28318530718 0.01)
    (0 6.28318530718 0.01)
);

blocks
(
    hex (0 1 2 3 4 5 6 7) (64 64 1) simpleGrading (1 1 1)
);

edges
(
);

boundary
(
    walls
    {
        type wall;
        faces
        (
            (0 4 7 3)
            (1 2 6 5)
        );
    }
    frontAndBack
    {
        type empty;
        faces
        (
            (0 1 5 4)
            (3 7 6 2)
        );
    }
    inletOutlet
    {
        type patch;
        faces
        (
            (0 3 2 1)
            (4 5 6 7)
        );
    }
);

mergePatchPairs
(
);
