FoamFile
{
    version     2.0;
    format      ascii;
    class       dictionary;
    object      fvSolution;
}
solvers
{
    rho { solver diagonal; }
    U   { solver diagonal; }
    p   { solver diagonal; }
    e   { solver diagonal; }
}
PISO
{
    nCorrectors     1;
    nNonOrthogonalCorrectors 0;
}
